examples/data/enwl/lv-network-models/network_7/Feeder_1/LineCode.txt
New LineCode..007_XC nphases=3 R1=3.97 X1=0.099 R0=3.97 X0=0.099 C1=0 C0=0 Units=km
New LineCode.25_PSC nphases=3 R1=0.727 X1=0.092 R0=0.76 X0=0.092 C1=0 C0=0 Units=km
New LineCode.25_SAC_PC nphases=3 R1=1.2 X1=0.084 R0=1.3 X0=0.084 C1=0 C0=0 Units=km
New LineCode.25_SAC_XC nphases=3 R1=1.2 X1=0.079 R0=1.3 X0=0.079 C1=0 C0=0 Units=km
New LineCode.2c_.007 nphases=3 R1=3.97 X1=0.099 R0=3.97 X0=0.099 C1=0 C0=0 Units=km
New LineCode.2c_.0145 nphases=3 R1=1.903 X1=0.09 R0=1.903 X0=0.09 C1=0 C0=0 Units=km
New LineCode.2c_.022 nphases=3 R1=1.257 X1=0.085 R0=1.257 X0=0.085 C1=0 C0=0 Units=km
New LineCode.35_SAC_PC nphases=3 R1=0.868 X1=0.077 R0=0.91 X0=0.077 C1=0 C0=0 Units=km
New LineCode.35_SAC_XSC nphases=3 R1=0.868 X1=0.092 R0=0.76 X0=0.092 C1=0 C0=0 Units=km
New LineCode.3c_.1 nphases=3 R1=0.274 X1=0.073 R0=0.959 X0=0.079 C1=0 C0=0 Units=km
New LineCode.3c_.1_AS nphases=3 R1=0.274 X1=0.073 R0=0.959 X0=0.079 C1=0 C0=0 Units=km
New LineCode.4_PC nphases=3 R1=4.61 X1=0.094 R0=4.8 X0=0.094 C1=0 C0=0 Units=km
New LineCode.4_PSC nphases=3 R1=4.61 X1=0.093 R0=4.8 X0=0.093 C1=0 C0=0 Units=km
New LineCode.4_XC nphases=3 R1=4.61 X1=0.091 R0=4.8 X0=0.091 C1=0 C0=0 Units=km
New LineCode.4_XSC nphases=3 R1=4.61 X1=0.091 R0=4.8 X0=0.091 C1=0 C0=0 Units=km
New LineCode.4c_.0225 nphases=3 R1=1.257 X1=0.086 R0=3.83 X0=0.102 C1=0 C0=0 Units=km
New LineCode.4c_.1 nphases=3 R1=0.274 X1=0.073 R0=0.959 X0=0.079 C1=0 C0=0 Units=km
New LineCode.4c_.15 nphases=3 R1=0.195 X1=0.07 R0=0.69 X0=0.078 C1=0 C0=0 Units=km
New LineCode.4c_.15_AS nphases=3 R1=0.195 X1=0.07 R0=0.69 X0=0.078 C1=0 C0=0 Units=km
New LineCode.4c_.1_AS nphases=3 R1=0.274 X1=0.073 R0=0.959 X0=0.079 C1=0 C0=0 Units=km
New LineCode.4c_.2_AC nphases=3 R1=0.23 X1=0.069 R0=0.782 X0=0.085 C1=0 C0=0 Units=km
New LineCode.4c_95_SAC_XC nphases=3 R1=0.322 X1=0.074 R0=0.804 X0=0.093 C1=0 C0=0 Units=km
